<?xml version="1.0" encoding="UTF-8"?>
<edges>
    <edge id="N2C" from="N" to="C" numLanes="2" speed="13.9" width="5.0"/>
    <edge id="S2C" from="S" to="C" numLanes="2" speed="13.9" width="5.0"/>
    <edge id="E2C" from="E" to="C" numLanes="2" speed="13.9" width="5.0"/>
    <edge id="W2C" from="W" to="C" numLanes="2" speed="13.9" width="5.0"/>

    <edge id="C2N" from="C" to="N" numLanes="2" speed="13.9" width="5.0"/>
    <edge id="C2S" from="C" to="S" numLanes="2" speed="13.9" width="5.0"/>
    <edge id="C2E" from="C" to="E" numLanes="2" speed="13.9" width="5.0"/>
    <edge id="C2W" from="C" to="W" numLanes="2" speed="13.9" width="5.0"/>
</edges>
