<?xml version="1.0" encoding="UTF-8"?>

<!-- generated on 2026-04-16T02:12:28.115561+03:00 by Eclipse SUMO netconvert 1.26.0
<netconvertConfiguration xmlns:xsi="http://www.w3.org/2001/XMLSchema-instance" xsi:noNamespaceSchemaLocation="http://sumo.dlr.de/xsd/netconvertConfiguration.xsd">

    <input>
        <node-files value="nodes.nod.xml"/>
        <edge-files value="edges.edg.xml"/>
    </input>

    <output>
        <output-file value="network.net.xml"/>
    </output>

</netconvertConfiguration>
-->

<net version="1.20" junctionCornerDetail="5" limitTurnSpeed="5.50" xmlns:xsi="http://www.w3.org/2001/XMLSchema-instance" xsi:noNamespaceSchemaLocation="http://sumo.dlr.de/xsd/net_file.xsd">

    <location netOffset="100.00,100.00" convBoundary="0.00,0.00,200.00,200.00" origBoundary="-100.00,-100.00,100.00,100.00" projParameter="!"/>

    <edge id=":C_0" function="internal">
        <lane id=":C_0_0" index="0" speed="7.14" length="10.48" width="5.00" shape="92.50,114.00 92.09,111.16 90.88,109.12 88.84,107.91 86.00,107.50"/>
    </edge>
    <edge id=":C_1" function="internal">
        <lane id=":C_1_0" index="0" speed="13.90" length="28.00" width="5.00" shape="92.50,114.00 92.50,86.00"/>
        <lane id=":C_1_1" index="1" speed="13.90" length="28.00" width="5.00" shape="97.50,114.00 97.50,86.00"/>
    </edge>
    <edge id=":C_3" function="internal">
        <lane id=":C_3_0" index="0" speed="10.89" length="8.28" width="5.00" shape="97.50,114.00 98.53,106.78 99.04,105.93"/>
    </edge>
    <edge id=":C_4" function="internal">
        <lane id=":C_4_0" index="0" speed="4.56" length="2.72" width="5.00" shape="97.50,114.00 98.75,112.12 99.17,111.92"/>
    </edge>
    <edge id=":C_20" function="internal">
        <lane id=":C_20_0" index="0" speed="10.89" length="18.33" width="5.00" shape="99.04,105.93 101.62,101.62 106.78,98.53 114.00,97.50"/>
    </edge>
    <edge id=":C_21" function="internal">
        <lane id=":C_21_0" index="0" speed="4.56" length="4.58" width="5.00" shape="99.17,111.92 100.00,111.50 101.25,112.12 102.50,114.00"/>
    </edge>
    <edge id=":C_5" function="internal">
        <lane id=":C_5_0" index="0" speed="7.14" length="10.48" width="5.00" shape="114.00,107.50 111.16,107.91 109.12,109.12 107.91,111.16 107.50,114.00"/>
    </edge>
    <edge id=":C_6" function="internal">
        <lane id=":C_6_0" index="0" speed="13.90" length="28.00" width="5.00" shape="114.00,107.50 86.00,107.50"/>
        <lane id=":C_6_1" index="1" speed="13.90" length="28.00" width="5.00" shape="114.00,102.50 86.00,102.50"/>
    </edge>
    <edge id=":C_8" function="internal">
        <lane id=":C_8_0" index="0" speed="10.89" length="8.28" width="5.00" shape="114.00,102.50 106.78,101.47 105.93,100.96"/>
    </edge>
    <edge id=":C_9" function="internal">
        <lane id=":C_9_0" index="0" speed="4.56" length="2.72" width="5.00" shape="114.00,102.50 112.12,101.25 111.92,100.83"/>
    </edge>
    <edge id=":C_22" function="internal">
        <lane id=":C_22_0" index="0" speed="10.89" length="18.33" width="5.00" shape="105.93,100.96 101.62,98.38 98.53,93.22 97.50,86.00"/>
    </edge>
    <edge id=":C_23" function="internal">
        <lane id=":C_23_0" index="0" speed="4.56" length="4.58" width="5.00" shape="111.92,100.83 111.50,100.00 112.12,98.75 114.00,97.50"/>
    </edge>
    <edge id=":C_10" function="internal">
        <lane id=":C_10_0" index="0" speed="7.14" length="10.48" width="5.00" shape="107.50,86.00 107.91,88.84 109.12,90.88 111.16,92.09 114.00,92.50"/>
    </edge>
    <edge id=":C_11" function="internal">
        <lane id=":C_11_0" index="0" speed="13.90" length="28.00" width="5.00" shape="107.50,86.00 107.50,114.00"/>
        <lane id=":C_11_1" index="1" speed="13.90" length="28.00" width="5.00" shape="102.50,86.00 102.50,114.00"/>
    </edge>
    <edge id=":C_13" function="internal">
        <lane id=":C_13_0" index="0" speed="10.89" length="8.28" width="5.00" shape="102.50,86.00 101.47,93.22 100.96,94.07"/>
    </edge>
    <edge id=":C_14" function="internal">
        <lane id=":C_14_0" index="0" speed="4.56" length="2.72" width="5.00" shape="102.50,86.00 101.25,87.88 100.83,88.08"/>
    </edge>
    <edge id=":C_24" function="internal">
        <lane id=":C_24_0" index="0" speed="10.89" length="18.33" width="5.00" shape="100.96,94.07 98.38,98.38 93.22,101.47 86.00,102.50"/>
    </edge>
    <edge id=":C_25" function="internal">
        <lane id=":C_25_0" index="0" speed="4.56" length="4.58" width="5.00" shape="100.83,88.08 100.00,88.50 98.75,87.88 97.50,86.00"/>
    </edge>
    <edge id=":C_15" function="internal">
        <lane id=":C_15_0" index="0" speed="7.14" length="10.48" width="5.00" shape="86.00,92.50 88.84,92.09 90.88,90.88 92.09,88.84 92.50,86.00"/>
    </edge>
    <edge id=":C_16" function="internal">
        <lane id=":C_16_0" index="0" speed="13.90" length="28.00" width="5.00" shape="86.00,92.50 114.00,92.50"/>
        <lane id=":C_16_1" index="1" speed="13.90" length="28.00" width="5.00" shape="86.00,97.50 114.00,97.50"/>
    </edge>
    <edge id=":C_18" function="internal">
        <lane id=":C_18_0" index="0" speed="10.89" length="8.28" width="5.00" shape="86.00,97.50 93.22,98.53 94.07,99.04"/>
    </edge>
    <edge id=":C_19" function="internal">
        <lane id=":C_19_0" index="0" speed="4.56" length="2.72" width="5.00" shape="86.00,97.50 87.88,98.75 88.08,99.17"/>
    </edge>
    <edge id=":C_26" function="internal">
        <lane id=":C_26_0" index="0" speed="10.89" length="18.33" width="5.00" shape="94.07,99.04 98.38,101.62 101.47,106.78 102.50,114.00"/>
    </edge>
    <edge id=":C_27" function="internal">
        <lane id=":C_27_0" index="0" speed="4.56" length="4.58" width="5.00" shape="88.08,99.17 88.50,100.00 87.88,101.25 86.00,102.50"/>
    </edge>
    <edge id=":E_0" function="internal">
        <lane id=":E_0_0" index="0" speed="4.56" length="7.30" width="5.00" shape="200.00,97.50 201.88,98.75 202.50,100.00 201.88,101.25 200.00,102.50"/>
    </edge>
    <edge id=":N_0" function="internal">
        <lane id=":N_0_0" index="0" speed="4.56" length="7.30" width="5.00" shape="102.50,200.00 101.25,201.88 100.00,202.50 98.75,201.88 97.50,200.00"/>
    </edge>
    <edge id=":S_0" function="internal">
        <lane id=":S_0_0" index="0" speed="4.56" length="7.30" width="5.00" shape="97.50,0.00 98.75,-1.88 100.00,-2.50 101.25,-1.88 102.50,0.00"/>
    </edge>
    <edge id=":W_0" function="internal">
        <lane id=":W_0_0" index="0" speed="4.56" length="7.30" width="5.00" shape="0.00,102.50 -1.88,101.25 -2.50,100.00 -1.88,98.75 0.00,97.50"/>
    </edge>

    <edge id="C2E" from="C" to="E" priority="-1">
        <lane id="C2E_0" index="0" speed="13.90" length="86.00" width="5.00" shape="114.00,92.50 200.00,92.50"/>
        <lane id="C2E_1" index="1" speed="13.90" length="86.00" width="5.00" shape="114.00,97.50 200.00,97.50"/>
    </edge>
    <edge id="C2N" from="C" to="N" priority="-1">
        <lane id="C2N_0" index="0" speed="13.90" length="86.00" width="5.00" shape="107.50,114.00 107.50,200.00"/>
        <lane id="C2N_1" index="1" speed="13.90" length="86.00" width="5.00" shape="102.50,114.00 102.50,200.00"/>
    </edge>
    <edge id="C2S" from="C" to="S" priority="-1">
        <lane id="C2S_0" index="0" speed="13.90" length="86.00" width="5.00" shape="92.50,86.00 92.50,0.00"/>
        <lane id="C2S_1" index="1" speed="13.90" length="86.00" width="5.00" shape="97.50,86.00 97.50,0.00"/>
    </edge>
    <edge id="C2W" from="C" to="W" priority="-1">
        <lane id="C2W_0" index="0" speed="13.90" length="86.00" width="5.00" shape="86.00,107.50 0.00,107.50"/>
        <lane id="C2W_1" index="1" speed="13.90" length="86.00" width="5.00" shape="86.00,102.50 0.00,102.50"/>
    </edge>
    <edge id="E2C" from="E" to="C" priority="-1">
        <lane id="E2C_0" index="0" speed="13.90" length="86.00" width="5.00" shape="200.00,107.50 114.00,107.50"/>
        <lane id="E2C_1" index="1" speed="13.90" length="86.00" width="5.00" shape="200.00,102.50 114.00,102.50"/>
    </edge>
    <edge id="N2C" from="N" to="C" priority="-1">
        <lane id="N2C_0" index="0" speed="13.90" length="86.00" width="5.00" shape="92.50,200.00 92.50,114.00"/>
        <lane id="N2C_1" index="1" speed="13.90" length="86.00" width="5.00" shape="97.50,200.00 97.50,114.00"/>
    </edge>
    <edge id="S2C" from="S" to="C" priority="-1">
        <lane id="S2C_0" index="0" speed="13.90" length="86.00" width="5.00" shape="107.50,0.00 107.50,86.00"/>
        <lane id="S2C_1" index="1" speed="13.90" length="86.00" width="5.00" shape="102.50,0.00 102.50,86.00"/>
    </edge>
    <edge id="W2C" from="W" to="C" priority="-1">
        <lane id="W2C_0" index="0" speed="13.90" length="86.00" width="5.00" shape="0.00,92.50 86.00,92.50"/>
        <lane id="W2C_1" index="1" speed="13.90" length="86.00" width="5.00" shape="0.00,97.50 86.00,97.50"/>
    </edge>

    <tlLogic id="C" type="static" programID="0" offset="0">
        <phase duration="42" state="GGGggrrrrrGGGggrrrrr"/>
        <phase duration="3"  state="yyyyyrrrrryyyyyrrrrr"/>
        <phase duration="42" state="rrrrrGGGggrrrrrGGGgg"/>
        <phase duration="3"  state="rrrrryyyyyrrrrryyyyy"/>
    </tlLogic>

    <junction id="C" type="traffic_light" x="100.00" y="100.00" incLanes="N2C_0 N2C_1 E2C_0 E2C_1 S2C_0 S2C_1 W2C_0 W2C_1" intLanes=":C_0_0 :C_1_0 :C_1_1 :C_20_0 :C_21_0 :C_5_0 :C_6_0 :C_6_1 :C_22_0 :C_23_0 :C_10_0 :C_11_0 :C_11_1 :C_24_0 :C_25_0 :C_15_0 :C_16_0 :C_16_1 :C_26_0 :C_27_0" shape="90.00,114.00 110.00,114.00 110.44,111.78 111.00,111.00 111.78,110.44 112.78,110.11 114.00,110.00 114.00,90.00 111.78,89.56 111.00,89.00 110.44,88.22 110.11,87.22 110.00,86.00 90.00,86.00 89.56,88.22 89.00,89.00 88.22,89.56 87.22,89.89 86.00,90.00 86.00,110.00 88.22,110.44 89.00,111.00 89.56,111.78 89.89,112.78">
        <request index="0"  response="00000000000000000000" foes="00000000000011000000" cont="0"/>
        <request index="1"  response="01000000000000000000" foes="01111110000111000000" cont="0"/>
        <request index="2"  response="01000000000100000000" foes="01111110000111000000" cont="0"/>
        <request index="3"  response="01000001100100000000" foes="01110001101111000000" cont="1"/>
        <request index="4"  response="01000001100000000000" foes="01000001100000000000" cont="1"/>
        <request index="5"  response="00000001100000000000" foes="00000001100000000000" cont="0"/>
        <request index="6"  response="00000011100000001111" foes="11000011100000001111" cont="0"/>
        <request index="7"  response="00000011100000001111" foes="11000011100000001111" cont="0"/>
        <request index="8"  response="00110011100000001110" foes="00110111100000001110" cont="1"/>
        <request index="9"  response="00110000000000001000" foes="00110000000000001000" cont="1"/>
        <request index="10" response="00000000000000000000" foes="00110000000000000000" cont="0"/>
        <request index="11" response="00000000000100000000" foes="01110000000111111000" cont="0"/>
        <request index="12" response="01000000000100000000" foes="01110000000111111000" cont="0"/>
        <request index="13" response="01000000000100000110" foes="11110000000111000110" cont="1"/>
        <request index="14" response="00000000000100000110" foes="00000000000100000110" cont="1"/>
        <request index="15" response="00000000000000000110" foes="00000000000000000110" cont="0"/>
        <request index="16" response="00000011110000001110" foes="00000011111100001110" cont="0"/>
        <request index="17" response="00000011110000001110" foes="00000011111100001110" cont="0"/>
        <request index="18" response="00000011100011001110" foes="00000011100011011110" cont="1"/>
        <request index="19" response="00000010000011000000" foes="00000010000011000000" cont="1"/>
    </junction>
    <junction id="E" type="priority" x="200.00" y="100.00" incLanes="C2E_0 C2E_1" intLanes=":E_0_0" shape="200.00,100.00 200.00,90.00 200.00,100.00">
        <request index="0" response="0" foes="0" cont="0"/>
    </junction>
    <junction id="N" type="priority" x="100.00" y="200.00" incLanes="C2N_0 C2N_1" intLanes=":N_0_0" shape="100.00,200.00 110.00,200.00 100.00,200.00">
        <request index="0" response="0" foes="0" cont="0"/>
    </junction>
    <junction id="S" type="priority" x="100.00" y="0.00" incLanes="C2S_0 C2S_1" intLanes=":S_0_0" shape="100.00,0.00 90.00,0.00 100.00,0.00">
        <request index="0" response="0" foes="0" cont="0"/>
    </junction>
    <junction id="W" type="priority" x="0.00" y="100.00" incLanes="C2W_0 C2W_1" intLanes=":W_0_0" shape="0.00,100.00 0.00,110.00 0.00,100.00">
        <request index="0" response="0" foes="0" cont="0"/>
    </junction>

    <junction id=":C_20_0" type="internal" x="99.04" y="105.93" incLanes=":C_3_0 S2C_0 S2C_1" intLanes=":C_6_0 :C_6_1 :C_8_0 :C_9_0 :C_10_0 :C_11_0 :C_11_1 :C_16_0 :C_16_1 :C_18_0"/>
    <junction id=":C_21_0" type="internal" x="99.17" y="111.92" incLanes=":C_4_0 E2C_0 S2C_0 S2C_1 W2C_1" intLanes=":C_5_0 :C_11_0 :C_11_1 :C_18_0"/>
    <junction id=":C_22_0" type="internal" x="105.93" y="100.96" incLanes=":C_8_0 W2C_0 W2C_1" intLanes=":C_1_0 :C_1_1 :C_3_0 :C_11_0 :C_11_1 :C_13_0 :C_14_0 :C_15_0 :C_16_0 :C_16_1"/>
    <junction id=":C_23_0" type="internal" x="111.92" y="100.83" incLanes=":C_9_0 N2C_1 S2C_0 W2C_0 W2C_1" intLanes=":C_3_0 :C_10_0 :C_16_0 :C_16_1"/>
    <junction id=":C_24_0" type="internal" x="100.96" y="94.07" incLanes=":C_13_0 N2C_0 N2C_1" intLanes=":C_0_0 :C_1_0 :C_1_1 :C_6_0 :C_6_1 :C_8_0 :C_16_0 :C_16_1 :C_18_0 :C_19_0"/>
    <junction id=":C_25_0" type="internal" x="100.83" y="88.08" incLanes=":C_14_0 E2C_1 N2C_0 N2C_1 W2C_0" intLanes=":C_1_0 :C_1_1 :C_8_0 :C_15_0"/>
    <junction id=":C_26_0" type="internal" x="94.07" y="99.04" incLanes=":C_18_0 E2C_0 E2C_1" intLanes=":C_1_0 :C_1_1 :C_3_0 :C_4_0 :C_5_0 :C_6_0 :C_6_1 :C_11_0 :C_11_1 :C_13_0"/>
    <junction id=":C_27_0" type="internal" x="88.08" y="99.17" incLanes=":C_19_0 E2C_0 E2C_1 N2C_0 S2C_1" intLanes=":C_0_0 :C_6_0 :C_6_1 :C_13_0"/>

    <connection from="C2E" to="E2C" fromLane="1" toLane="1" via=":E_0_0" dir="t" state="M"/>
    <connection from="C2N" to="N2C" fromLane="1" toLane="1" via=":N_0_0" dir="t" state="M"/>
    <connection from="C2S" to="S2C" fromLane="1" toLane="1" via=":S_0_0" dir="t" state="M"/>
    <connection from="C2W" to="W2C" fromLane="1" toLane="1" via=":W_0_0" dir="t" state="M"/>
    <connection from="E2C" to="C2N" fromLane="0" toLane="0" via=":C_5_0" tl="C" linkIndex="5" dir="r" state="o"/>
    <connection from="E2C" to="C2W" fromLane="0" toLane="0" via=":C_6_0" tl="C" linkIndex="6" dir="s" state="o"/>
    <connection from="E2C" to="C2W" fromLane="1" toLane="1" via=":C_6_1" tl="C" linkIndex="7" dir="s" state="o"/>
    <connection from="E2C" to="C2S" fromLane="1" toLane="1" via=":C_8_0" tl="C" linkIndex="8" dir="l" state="o"/>
    <connection from="E2C" to="C2E" fromLane="1" toLane="1" via=":C_9_0" tl="C" linkIndex="9" dir="t" state="o"/>
    <connection from="N2C" to="C2W" fromLane="0" toLane="0" via=":C_0_0" tl="C" linkIndex="0" dir="r" state="O"/>
    <connection from="N2C" to="C2S" fromLane="0" toLane="0" via=":C_1_0" tl="C" linkIndex="1" dir="s" state="O"/>
    <connection from="N2C" to="C2S" fromLane="1" toLane="1" via=":C_1_1" tl="C" linkIndex="2" dir="s" state="O"/>
    <connection from="N2C" to="C2E" fromLane="1" toLane="1" via=":C_3_0" tl="C" linkIndex="3" dir="l" state="o"/>
    <connection from="N2C" to="C2N" fromLane="1" toLane="1" via=":C_4_0" tl="C" linkIndex="4" dir="t" state="o"/>
    <connection from="S2C" to="C2E" fromLane="0" toLane="0" via=":C_10_0" tl="C" linkIndex="10" dir="r" state="O"/>
    <connection from="S2C" to="C2N" fromLane="0" toLane="0" via=":C_11_0" tl="C" linkIndex="11" dir="s" state="O"/>
    <connection from="S2C" to="C2N" fromLane="1" toLane="1" via=":C_11_1" tl="C" linkIndex="12" dir="s" state="O"/>
    <connection from="S2C" to="C2W" fromLane="1" toLane="1" via=":C_13_0" tl="C" linkIndex="13" dir="l" state="o"/>
    <connection from="S2C" to="C2S" fromLane="1" toLane="1" via=":C_14_0" tl="C" linkIndex="14" dir="t" state="o"/>
    <connection from="W2C" to="C2S" fromLane="0" toLane="0" via=":C_15_0" tl="C" linkIndex="15" dir="r" state="o"/>
    <connection from="W2C" to="C2E" fromLane="0" toLane="0" via=":C_16_0" tl="C" linkIndex="16" dir="s" state="o"/>
    <connection from="W2C" to="C2E" fromLane="1" toLane="1" via=":C_16_1" tl="C" linkIndex="17" dir="s" state="o"/>
    <connection from="W2C" to="C2N" fromLane="1" toLane="1" via=":C_18_0" tl="C" linkIndex="18" dir="l" state="o"/>
    <connection from="W2C" to="C2W" fromLane="1" toLane="1" via=":C_19_0" tl="C" linkIndex="19" dir="t" state="o"/>

    <connection from=":C_0" to="C2W" fromLane="0" toLane="0" dir="r" state="M"/>
    <connection from=":C_1" to="C2S" fromLane="0" toLane="0" dir="s" state="M"/>
    <connection from=":C_1" to="C2S" fromLane="1" toLane="1" dir="s" state="M"/>
    <connection from=":C_3" to="C2E" fromLane="0" toLane="1" via=":C_20_0" dir="l" state="m"/>
    <connection from=":C_20" to="C2E" fromLane="0" toLane="1" dir="l" state="M"/>
    <connection from=":C_4" to="C2N" fromLane="0" toLane="1" via=":C_21_0" dir="t" state="m"/>
    <connection from=":C_21" to="C2N" fromLane="0" toLane="1" dir="t" state="M"/>
    <connection from=":C_5" to="C2N" fromLane="0" toLane="0" dir="r" state="M"/>
    <connection from=":C_6" to="C2W" fromLane="0" toLane="0" dir="s" state="M"/>
    <connection from=":C_6" to="C2W" fromLane="1" toLane="1" dir="s" state="M"/>
    <connection from=":C_8" to="C2S" fromLane="0" toLane="1" via=":C_22_0" dir="l" state="m"/>
    <connection from=":C_22" to="C2S" fromLane="0" toLane="1" dir="l" state="M"/>
    <connection from=":C_9" to="C2E" fromLane="0" toLane="1" via=":C_23_0" dir="t" state="m"/>
    <connection from=":C_23" to="C2E" fromLane="0" toLane="1" dir="t" state="M"/>
    <connection from=":C_10" to="C2E" fromLane="0" toLane="0" dir="r" state="M"/>
    <connection from=":C_11" to="C2N" fromLane="0" toLane="0" dir="s" state="M"/>
    <connection from=":C_11" to="C2N" fromLane="1" toLane="1" dir="s" state="M"/>
    <connection from=":C_13" to="C2W" fromLane="0" toLane="1" via=":C_24_0" dir="l" state="m"/>
    <connection from=":C_24" to="C2W" fromLane="0" toLane="1" dir="l" state="M"/>
    <connection from=":C_14" to="C2S" fromLane="0" toLane="1" via=":C_25_0" dir="t" state="m"/>
    <connection from=":C_25" to="C2S" fromLane="0" toLane="1" dir="t" state="M"/>
    <connection from=":C_15" to="C2S" fromLane="0" toLane="0" dir="r" state="M"/>
    <connection from=":C_16" to="C2E" fromLane="0" toLane="0" dir="s" state="M"/>
    <connection from=":C_16" to="C2E" fromLane="1" toLane="1" dir="s" state="M"/>
    <connection from=":C_18" to="C2N" fromLane="0" toLane="1" via=":C_26_0" dir="l" state="m"/>
    <connection from=":C_26" to="C2N" fromLane="0" toLane="1" dir="l" state="M"/>
    <connection from=":C_19" to="C2W" fromLane="0" toLane="1" via=":C_27_0" dir="t" state="m"/>
    <connection from=":C_27" to="C2W" fromLane="0" toLane="1" dir="t" state="M"/>
    <connection from=":E_0" to="E2C" fromLane="0" toLane="1" dir="t" state="M"/>
    <connection from=":N_0" to="N2C" fromLane="0" toLane="1" dir="t" state="M"/>
    <connection from=":S_0" to="S2C" fromLane="0" toLane="1" dir="t" state="M"/>
    <connection from=":W_0" to="W2C" fromLane="0" toLane="1" dir="t" state="M"/>

</net>
