<?xml version="1.0" encoding="UTF-8"?>
<nodes>
    <!-- Intersection A -->
    <node id="A_N" x="0" y="200" type="priority"/>
    <node id="A_S" x="0" y="0" type="priority"/>
    <node id="A_E" x="200" y="100" type="priority"/>
    <node id="A_W" x="-200" y="100" type="priority"/>
    <node id="A" x="0" y="100" type="traffic_light"/>

    <!-- Intersection B -->
    <node id="B_N" x="0" y="400" type="priority"/>
    <node id="B_S" x="0" y="200" type="priority"/>
    <node id="B_E" x="200" y="300" type="priority"/>
    <node id="B_W" x="-200" y="300" type="priority"/>
    <node id="B" x="0" y="300" type="traffic_light"/>
</nodes>
