<configuration>
    <input>
        <net-file value="network.net.xml"/>
        <route-files value="routes.rou.xml"/>
    </input>
    <processing>
        <collision action="warn"/>
    </processing>
</configuration>
